Circuit: * C:\Users\lazar\Desktop\Analog electronics\Lab1.asc


Date: Tue Feb 23 22:25:08 2021
Total elapsed time: 0.830 seconds.

tnom = 27
temp = 27
method = trap
totiter = 0
traniter = 0
tranpoints = 0
accept = 0
rejected = 0
matrix size = 8
fillins = 2
solver = Normal

